Circuit: * Z:\home\chrisg\PCBs\LoudMouth\SPICE\ClassBvsClassAB.asc

Direct Newton iteration for .op point succeeded.

Date: Mon Oct 05 13:46:49 2015
Total elapsed time: 0.044 seconds.

tnom = 27
temp = 27
method = modified trap
totiter = 3311
traniter = 3295
tranpoints = 1405
accept = 1269
rejected = 136
matrix size = 30
fillins = 1
solver = Normal
Matrix Compiler1: 1.71 KB object code size  0.7/0.3/[0.3]
Matrix Compiler2: 2.38 KB object code size  0.3/2.1/[0.3]


